crop-based biofuels, and from agriculture in general, in Earth’s climate. Phil. Trans. R. 
Soc. Lond. B 367, 1169–1174 (2012).
89.	 Thompson, R. L. et al. Nitrous oxide emissions 1999 to 2009 from a global atmospheric 
inversion. Atmos. Chem. Phys. 14, 1801–1817 (2014).
90.	 Wells, K. C. et al. Simulation of atmospheric N2O with GEOS-Chem and its adjoint: 
evaluation of observational constraints. Geosci. Model Dev. 8, 3179–3198 (2015).
91.