UCI CTM
Oslo CTM3
GEOS-Chem
Literature c
Adopted d
Chemistry-climate interactions
Air temperature e
−3.9
−2.8
−2.2
−3.0 ± 0.8
Water vapor e
−0.32
−0.29
−0.34
−0.32 ± 0.03
Ozone column, 40◦S–40◦N
+0.66
+0.43f
+0.61
+0.28 −0.76g [1]
+0.55 ± 0.11
+0.28h [2]
+0.27g [3]
Lightning NOx emissions
−0.14
−0.11
−0.24
-0.08–0.16 [4]
−0.16 ± 0.06
Biomass burning emissions i
+0.021
+0.013
+0.017
+0.020 ± 0.015
+0.003j
CH4 abundance k
+0.363
+0.307
+0.274
+0.32 [5]
+0.31 ± 0.04
+0.28 ± 0.03 [6]