ity in global biomass burning emissions from 1997 to 2004, At-
mos. Chem. Phys., 6, 3423–3441, doi:10.5194/acp-6-3423-2006,
2006.
Vinken, G. C. M., Boersma, K. F., Jacob, D. J., and Meijer, E.
W.: Accounting for non-linear chemistry of ship plumes in the
GEOS-Chem global chemistry transport model, Atmos. Chem.
Phys., 11, 11707–11722, doi:10.5194/acp-11-11707-2011, 2011.
Wild, O. and Prather, M. J.: Excitation of the primary tropospheric